<?xml version="1.0" encoding="UTF-8"?>

<!-- generated on Sat Dec  9 18:16:35 2023 by Eclipse SUMO polyconvert Version 1.8.0
<configuration xmlns:xsi="http://www.w3.org/2001/XMLSchema-instance" xsi:noNamespaceSchemaLocation="http://sumo.dlr.de/xsd/polyconvertConfiguration.xsd">

    <input>
        <net-file value="osm.net.xml"/>
        <osm-files value="osm_bbox.osm.xml"/>
        <osm.keep-full-type value="true"/>
        <type-file value="/home/luis/Scrivania/sumo-1.8.0/data/typemap/osmPolyconvert.typ.xml"/>
    </input>

    <output>
        <output-file value="osm.poly.xml"/>
    </output>

    <processing>
        <poi-layer-offset value="5"/>
    </processing>

    <report>
        <verbose value="true"/>
    </report>

</configuration>
-->

<additional xmlns:xsi="http://www.w3.org/2001/XMLSchema-instance" xsi:noNamespaceSchemaLocation="http://sumo.dlr.de/xsd/additional_file.xsd">
    <location netOffset="-395978.87,-4133926.23" convBoundary="-0.00,-13.50,2839.71,2737.74" origBoundary="13.825451,37.346170,13.857552,37.371129" projParameter="+proj=utm +zone=33 +ellps=WGS84 +datum=WGS84 +units=m +no_defs"/>

    <poly id="110801806" type="building.yes" color="255,230,230" fill="1" layer="-1.00" shape="912.199456,295.030559 903.234782,271.339569 889.787606,276.387735 885.337123,264.613982 910.106487,255.320596 923.521585,290.785362 912.199456,295.030559"/>
    <poly id="110801831" type="building.yes" color="255,230,230" fill="1" layer="-1.00" shape="1320.556967,736.697337 1335.682040,739.929246 1339.830201,720.659579 1324.705095,717.427661 1320.556967,736.697337"/>
    <poly id="110801844" type="building.yes" color="255,230,230" fill="1" layer="-1.00" shape="879.383378,250.905825 903.433419,241.465944 898.742698,229.606377 874.683769,239.046380 879.383378,250.905825"/>
    <poly id="1124909371" type="building.yes" color="255,230,230" fill="1" layer="-1.00" shape="336.580812,612.055442 336.019141,613.194230 337.080966,617.386565 335.668257,617.759162 337.110823,623.367105 338.383470,623.129400 342.530003,625.341639 344.863281,624.913245 349.371103,627.686919 350.864428,624.528152 352.718195,624.005838 351.406926,618.984369 349.437606,619.474827 348.419660,615.248657 350.097940,614.861674 348.733444,609.119606 336.580812,612.055442"/>
    <poly id="1124909372" type="building.yes" color="255,230,230" fill="1" layer="-1.00" shape="636.342304,529.383047 626.251978,532.914353 632.663570,547.093824 643.996446,545.189416 636.342304,529.383047"/>
    <poly id="1124909374" type="building.yes" color="255,230,230" fill="1" layer="-1.00" shape="1166.163595,268.113091 1190.106330,266.498228 1180.566427,242.791847 1162.050055,246.248557 1166.163595,268.113091"/>
    <poly id="1124909375" type="building.yes" color="255,230,230" fill="1" layer="-1.00" shape="1359.958980,326.905749 1358.055721,333.509192 1374.528327,338.211551 1375.394862,335.193830 1376.431597,331.608111 1359.958980,326.905749"/>
    <poly id="1124910594" type="building.yes" color="255,230,230" fill="1" layer="-1.00" shape="1067.346802,546.702406 1066.631843,556.265100 1084.807920,557.605932 1085.765766,544.744657 1079.851866,544.307022 1079.992912,534.895646 1060.430216,534.614944 1060.250026,546.601139 1067.346802,546.702406"/>
    <poly id="1125685004" type="building.yes" color="255,230,230" fill="1" layer="-1.00" shape="1356.797450,975.665390 1370.982462,980.284829 1375.472255,966.481437 1361.390504,961.616604 1360.306041,964.914414 1356.797450,975.665390"/>
    <poly id="1125685018" type="building.yes" color="255,230,230" fill="1" layer="-1.00" shape="1314.998368,946.196574 1310.529236,960.232769 1316.647346,962.177141 1324.021857,964.727479 1324.626417,962.744918 1320.011745,961.325791 1320.727488,959.020072 1316.709063,957.826645 1318.473419,952.190262 1322.109924,953.299610 1323.535419,948.921269 1314.998368,946.196574"/>
    <poly id="1125685025" type="building.yes" color="255,230,230" fill="1" layer="-1.00" shape="1332.187873,951.666748 1323.535419,948.921269 1322.109924,953.299610 1321.708791,954.536223 1329.971551,957.286486 1332.187873,951.666748"/>
    <poly id="1125685031" type="building.yes" color="255,230,230" fill="1" layer="-1.00" shape="1332.250542,967.589125 1327.073142,965.788535 1324.021857,964.727479 1316.647346,962.177141 1312.741358,974.464304 1328.472477,979.475243 1332.250542,967.589125"/>
    <poly id="1125685038" type="building.yes" color="255,230,230" fill="1" layer="-1.00" shape="1303.246247,946.385315 1286.951364,941.636561 1282.820734,955.823962 1284.127419,956.196276 1281.696817,964.559440 1296.462609,968.860923 1298.816378,960.731730 1297.883032,960.465789 1299.157679,956.067103 1300.331106,956.407769 1303.246247,946.385315"/>
    <poly id="1125685047" type="building.yes" color="255,230,230" fill="1" layer="-1.00" shape="1347.099577,960.638057 1343.430629,971.313335 1356.797450,975.665390 1360.306041,964.914414 1347.099577,960.638057"/>
    <poly id="1125685074" type="building.yes" color="255,230,230" fill="1" layer="-1.00" shape="1321.708791,954.536223 1322.109924,953.299610 1318.473419,952.190262 1316.709063,957.826645 1320.727488,959.020072 1320.011745,961.325791 1324.626417,962.744918 1324.021857,964.727479 1327.073142,965.788535 1329.971551,957.286486 1321.708791,954.536223"/>
    <poly id="1125685090" type="building.yes" color="255,230,230" fill="1" layer="-1.00" shape="1332.250542,967.589125 1336.847785,953.163000 1332.187873,951.666748 1329.971551,957.286486 1327.073142,965.788535 1332.250542,967.589125"/>
    <poly id="1125685093" type="building.yes" color="255,230,230" fill="1" layer="-1.00" shape="1361.390504,961.616604 1348.322743,957.094425 1347.099577,960.638057 1360.306041,964.914414 1361.390504,961.616604"/>
    <poly id="1125718493" type="landuse.religious" color="194,194,130" fill="1" layer="-3.00" shape="1543.315051,471.638026 1591.639374,426.217177 1584.025343,423.669526 1576.310937,419.436482 1550.466217,416.890270 1540.118106,416.772948 1539.581071,412.707205 1536.683314,411.899399 1524.085693,434.956444 1523.065227,439.873494 1523.137292,445.753624 1524.390263,449.688534 1532.546628,466.854344 1536.268421,469.849108 1538.138174,471.346383 1540.192857,472.031365 1541.876108,472.044027 1543.315051,471.638026"/>
    <poly id="1128036314" type="amenity.schoolyard" color="237,199,199" fill="1" layer="-1.00" shape="1599.385679,952.351016 1574.089858,1003.870132 1577.779692,1005.722386 1576.802016,1007.620728 1628.499020,1033.884843 1655.646549,980.934004 1599.385679,952.351016"/>
    <poly id="1128036315" type="building.school" color="255,230,230" fill="1" layer="-1.00" shape="1638.506687,996.856149 1640.582531,992.769502 1643.393386,987.220247 1601.206965,965.810661 1595.359921,977.311427 1593.817820,976.520289 1591.101969,981.868665 1598.303838,985.519886 1592.305301,996.944837 1596.396532,999.025203 1594.623486,1002.520051 1606.112760,1008.360204 1608.231916,1004.195344 1606.912730,1003.523534 1616.098489,985.457286 1629.263392,992.142459 1618.149355,1014.049419 1627.392226,1018.729812 1638.506687,996.856149"/>
    <poly id="1128036317" type="building.school" color="255,230,230" fill="1" layer="-1.00" shape="1471.480231,931.604086 1477.782656,942.079342 1478.330273,949.174235 1476.303604,950.042405 1473.395770,951.287558 1471.721460,951.996060 1478.924232,962.937414 1478.683232,968.566175 1474.124241,971.684652 1468.725584,962.674118 1464.873495,964.929519 1455.841512,970.233352 1466.586375,988.310532 1493.140315,971.540235 1493.455763,970.537704 1490.523756,912.018679 1490.346015,908.359092 1479.082319,908.652558 1471.325295,908.858648 1471.649621,922.303341 1477.274100,922.278750 1477.030515,927.696713 1471.480231,931.604086"/>
    <poly id="1128036318" type="amenity.schoolyard" color="237,199,199" fill="1" layer="-1.00" shape="1435.599744,976.606799 1467.332188,893.117638 1483.055642,895.332705 1526.576968,915.748881 1587.457347,945.384429 1579.894587,961.444594 1585.279686,964.296938 1561.399728,1013.524019 1558.712228,1019.737568 1549.619561,1032.376672 1517.503428,1019.554668 1435.599744,976.606799"/>
    <poly id="1128036321" type="building.school" color="255,230,230" fill="1" layer="-1.00" shape="1576.057185,959.117007 1580.776807,948.861725 1575.877427,946.613726 1575.359626,947.729696 1532.155506,927.875295 1514.278653,966.764896 1519.890642,969.337011 1517.000408,975.630732 1526.443001,979.975681 1529.320386,981.305252 1553.665987,992.491508 1555.003126,989.567902 1557.375723,984.401260 1562.961117,986.973729 1565.268277,988.032893 1567.873890,982.364067 1565.807213,981.412918 1574.745651,961.962622 1576.057185,959.117007"/>
    <poly id="1128036322" type="building.school" color="255,230,230" fill="1" layer="-1.00" shape="1566.106094,959.538529 1534.483270,945.068161 1523.484357,969.126515 1551.998240,982.170231 1557.769495,969.549639 1560.878371,970.976250 1566.106094,959.538529"/>
    <poly id="1128036323" type="building.yes" color="255,230,230" fill="1" layer="-1.00" shape="1473.395770,951.287558 1476.303604,950.042405 1471.756503,942.574902 1469.039689,944.228276 1473.395770,951.287558"/>
    <poly id="1128037842" type="building.yes" color="255,230,230" fill="1" layer="-1.00" shape="1662.279254,705.798887 1659.349839,708.908406 1649.645147,704.155948 1647.134394,708.902591 1658.205338,713.826958 1664.888228,708.352379 1662.279254,705.798887"/>
    <poly id="1128037843" type="building.yes" color="255,230,230" fill="1" layer="-1.00" shape="1674.986963,700.428114 1671.935587,697.192066 1675.445488,693.742560 1670.159052,687.382531 1669.194305,688.171077 1666.776511,685.315644 1666.163322,685.877962 1665.678263,685.329086 1662.893023,687.915315 1663.763407,688.825650 1662.529395,690.050246 1667.646636,695.613411 1666.508421,696.703678 1671.694683,703.564262 1674.986963,700.428114"/>
    <poly id="1128037844" type="building.retail" color="255,230,230" fill="1" layer="-1.00" shape="1695.323301,715.469880 1697.066392,713.861788 1700.844715,710.630934 1691.515690,700.381188 1686.075614,705.352301 1692.881261,712.803374 1695.323301,715.469880"/>
    <poly id="1128037845" type="building.yes" color="255,230,230" fill="1" layer="-1.00" shape="1671.694683,703.564262 1666.508421,696.703678 1663.697836,699.390083 1668.805474,706.340397 1671.694683,703.564262"/>
    <poly id="1128037846" type="building.yes" color="255,230,230" fill="1" layer="-1.00" shape="1648.317511,695.561510 1647.417997,697.336825 1652.008733,699.688514 1652.977201,697.757007 1648.317511,695.561510"/>
    <poly id="1128037847" type="building.retail" color="255,230,230" fill="1" layer="-1.00" shape="1687.746932,715.251896 1690.190964,713.013834 1690.684533,712.086806 1684.913032,705.899148 1681.786450,708.822435 1687.746932,715.251896"/>
    <poly id="1128037848" type="building.yes" color="255,230,230" fill="1" layer="-1.00" shape="1647.134394,708.902591 1649.645147,704.155948 1652.008733,699.688514 1647.417997,697.336825 1648.317511,695.561510 1641.359039,692.273437 1638.218310,698.381538 1641.167304,699.765754 1639.786072,702.712074 1636.837214,701.338953 1635.795558,703.803978 1647.134394,708.902591"/>
    <poly id="1128037849" type="building.yes" color="255,230,230" fill="1" layer="-1.00" shape="1664.888228,708.352379 1665.653414,709.352772 1668.805474,706.340397 1663.697836,699.390083 1661.307491,701.671880 1652.977201,697.757007 1652.008733,699.688514 1649.645147,704.155948 1659.349839,708.908406 1662.279254,705.798887 1664.888228,708.352379"/>
    <poly id="1128037850" type="building.yes" color="255,230,230" fill="1" layer="-1.00" shape="1628.377886,686.162988 1625.216027,692.715203 1628.272394,694.186870 1631.442840,687.612359 1628.377886,686.162988"/>
    <poly id="1128037851" type="building.yes" color="255,230,230" fill="1" layer="-1.00" shape="1668.808484,683.426604 1679.942354,695.662658 1682.641472,693.277222 1671.507468,681.030069 1668.808484,683.426604"/>
    <poly id="1128037853" type="building.roof" color="255,230,230" fill="1" layer="-1.00" shape="1699.817139,723.659407 1695.783458,721.223203 1695.998324,718.513089 1690.190964,713.013834 1687.746932,715.251896 1686.423267,716.388815 1690.493099,721.054918 1683.096896,732.663335 1691.123124,737.070193 1699.817139,723.659407"/>
    <poly id="1128037854" type="building.yes" color="255,230,230" fill="1" layer="-1.00" shape="1671.935587,697.192066 1674.986963,700.428114 1679.942354,695.662658 1668.808484,683.426604 1666.776511,685.315644 1669.194305,688.171077 1670.159052,687.382531 1675.445488,693.742560 1671.935587,697.192066"/>
    <poly id="1128037855" type="building.yes" color="255,230,230" fill="1" layer="-1.00" shape="1631.442840,687.612359 1628.272394,694.186870 1625.216027,692.715203 1628.377886,686.162988 1618.702302,681.621038 1614.345080,691.106209 1613.145909,693.728513 1635.795558,703.803978 1636.837214,701.338953 1638.218310,698.381538 1641.359039,692.273437 1631.442840,687.612359"/>
    <poly id="1128037856" type="building.yes" color="255,230,230" fill="1" layer="-1.00" shape="1443.761772,758.853467 1457.577435,762.944972 1455.927534,768.535531 1459.652529,769.632759 1461.518804,764.350243 1466.457987,750.330572 1463.338684,747.339549 1462.029947,746.079529 1459.460702,743.880691 1451.459017,739.318403 1443.761772,758.853467"/>
    <poly id="1128037857" type="building.yes" color="255,230,230" fill="1" layer="-1.00" shape="1438.787362,771.442167 1437.610598,774.441497 1456.587543,778.292146 1456.775996,777.768310 1459.652529,769.632759 1455.927534,768.535531 1457.577435,762.944972 1443.761772,758.853467 1438.787362,771.442167"/>
    <poly id="1128037863" type="building.yes" color="255,230,230" fill="1" layer="-1.00" shape="1664.308030,961.997628 1698.757493,980.916774 1704.173761,971.119083 1669.627529,952.256580 1664.308030,961.997628"/>
    <poly id="1128037864" type="building.yes" color="255,230,230" fill="1" layer="-1.00" shape="1506.291430,699.631591 1510.418133,700.979132 1509.249493,704.644126 1507.097710,703.982536 1505.888461,707.947628 1512.125785,710.212478 1516.056700,699.201191 1513.005073,698.117875 1516.432635,687.956074 1478.650301,675.492139 1474.937442,686.223364 1472.090736,685.237416 1468.276927,695.681380 1474.148828,697.762047 1475.533569,693.661643 1473.718612,693.018124 1475.020091,689.351495 1479.530778,690.949526 1481.712258,685.363552 1483.351147,680.316852 1487.656224,681.762061 1486.096365,686.752310 1503.836891,692.338151 1505.511899,687.346494 1510.119869,688.932253 1508.354387,693.769670 1506.291430,699.631591"/>
    <poly id="1128037865" type="building.yes" color="255,230,230" fill="1" layer="-1.00" shape="1513.005073,698.117875 1516.056700,699.201191 1521.528822,683.843475 1478.037808,668.886279 1472.090736,685.237416 1474.937442,686.223364 1478.650301,675.492139 1516.432635,687.956074 1513.005073,698.117875"/>
    <poly id="1128037866" type="building.yes" color="255,230,230" fill="1" layer="-1.00" shape="1453.195413,735.724110 1464.253520,739.594236 1462.029947,746.079529 1463.338684,747.339549 1466.457987,750.330572 1479.162423,714.367149 1463.061115,708.816739 1453.195413,735.724110"/>
    <poly id="1128037867" type="building.yes" color="255,230,230" fill="1" layer="-1.00" shape="1435.116435,781.973167 1431.393185,793.292646 1443.823779,794.959942 1447.282557,784.464836 1435.116435,781.973167"/>
    <poly id="1128037868" type="building.yes" color="255,230,230" fill="1" layer="-1.00" shape="1580.149492,890.425419 1575.515175,894.632194 1581.697030,901.058868 1588.123984,894.954868 1584.813624,891.544484 1582.975344,893.331309 1580.149492,890.425419"/>
    <poly id="1128037870" type="building.yes" color="255,230,230" fill="1" layer="-1.00" shape="1583.685282,839.206167 1585.443071,840.971131 1588.265724,837.829602 1586.642823,836.229429 1583.685282,839.206167"/>
    <poly id="1128037871" type="building.yes" color="255,230,230" fill="1" layer="-1.00" shape="1526.204682,700.363972 1534.122471,703.140862 1535.550436,698.951169 1538.645392,699.956288 1539.412496,696.052102 1541.040929,690.872387 1531.189485,687.886167 1526.204682,700.363972"/>
    <poly id="1128037872" type="building.yes" color="255,230,230" fill="1" layer="-1.00" shape="1535.821037,857.635431 1526.977255,849.399438 1525.023792,847.570307 1519.250350,852.789739 1523.645191,857.229854 1525.586619,855.186538 1532.146659,861.386616 1535.821037,857.635431"/>
    <poly id="1128037873" type="building.yes" color="255,230,230" fill="1" layer="-1.00" shape="1621.140503,772.225375 1616.913815,767.772054 1608.467598,776.086718 1612.825507,780.405272 1621.140503,772.225375"/>
    <poly id="1128037874" type="building.yes" color="255,230,230" fill="1" layer="-1.00" shape="1655.476773,883.854948 1653.946150,885.449353 1658.922557,890.370652 1660.675139,888.817915 1655.476773,883.854948"/>
    <poly id="1128037875" type="building.yes" color="255,230,230" fill="1" layer="-1.00" shape="1427.138025,845.730308 1442.625466,846.749801 1443.262025,839.429555 1443.440142,837.341273 1435.442025,836.673747 1427.958275,836.055399 1427.138025,845.730308"/>
    <poly id="1128037876" type="building.yes" color="255,230,230" fill="1" layer="-1.00" shape="1590.953066,860.521817 1581.275718,870.283011 1592.763228,881.748975 1595.162629,879.489237 1596.275529,880.674001 1599.628482,877.437210 1598.319106,876.121697 1602.518790,871.864777 1590.953066,860.521817"/>
    <poly id="1128037877" type="building.yes" color="255,230,230" fill="1" layer="-1.00" shape="1607.008379,741.561950 1609.370844,737.005746 1606.975597,735.992032 1608.972625,731.251667 1602.376726,728.636058 1601.374451,731.422397 1599.129932,737.652693 1607.008379,741.561950"/>
    <poly id="1128037879" type="building.yes" color="255,230,230" fill="1" layer="-1.00" shape="1656.074936,863.252978 1648.992914,855.649972 1644.311516,860.356615 1655.255028,871.529724 1661.557113,865.349639 1658.054401,861.420057 1656.074936,863.252978"/>
    <poly id="1128037881" type="building.yes" color="255,230,230" fill="1" layer="-1.00" shape="1685.284347,792.700571 1689.802577,797.094875 1693.185189,793.380623 1688.699127,788.719613 1692.530856,784.789036 1681.567851,775.646730 1678.404315,779.890926 1672.656069,775.600452 1668.067341,771.961564 1664.674622,776.297340 1685.284347,792.700571"/>
    <poly id="1128037882" type="building.yes" color="255,230,230" fill="1" layer="-1.00" shape="1582.376046,793.794133 1573.400505,784.927218 1570.874461,788.420197 1579.453238,796.714964 1582.376046,793.794133"/>
    <poly id="1128037883" type="building.yes" color="255,230,230" fill="1" layer="-1.00" shape="1587.868027,918.892631 1595.259708,911.278824 1593.654399,909.667338 1591.167008,911.251283 1587.595058,911.794370 1586.846618,911.437362 1585.033237,914.533239 1583.420862,916.683473 1587.868027,918.892631"/>
    <poly id="1128037884" type="building.yes" color="255,230,230" fill="1" layer="-1.00" shape="1655.897619,755.421764 1652.395330,760.213833 1656.905718,763.964634 1660.663225,759.036288 1655.897619,755.421764"/>
    <poly id="1128037885" type="building.yes" color="255,230,230" fill="1" layer="-1.00" shape="1454.630866,796.425243 1462.350094,797.462386 1465.247629,788.150375 1457.876811,786.631817 1454.630866,796.425243"/>
    <poly id="1128037886" type="building.yes" color="255,230,230" fill="1" layer="-1.00" shape="1630.003609,873.192626 1626.424434,869.530304 1621.243799,874.698020 1624.956638,878.425281 1630.003609,873.192626"/>
    <poly id="1128037887" type="building.yes" color="255,230,230" fill="1" layer="-1.00" shape="1569.718007,812.602012 1573.426628,808.750560 1571.346590,806.712139 1574.622731,802.988045 1570.884354,799.349888 1567.773228,802.805652 1563.706878,799.149323 1554.904725,811.662791 1560.731320,817.283777 1567.377998,810.311563 1569.718007,812.602012"/>
    <poly id="1128037888" type="building.yes" color="255,230,230" fill="1" layer="-1.00" shape="1532.392033,802.628919 1525.724535,809.346202 1523.099480,811.985998 1538.496665,827.320950 1548.090344,817.960198 1532.392033,802.628919"/>
    <poly id="1128037889" type="building.yes" color="255,230,230" fill="1" layer="-1.00" shape="1555.311293,711.103534 1556.474399,706.262411 1549.118115,704.488379 1550.341177,699.480077 1550.475817,698.901422 1547.559087,697.982885 1547.959723,696.701906 1542.428615,694.960996 1541.849056,696.821173 1539.412496,696.052102 1538.645392,699.956288 1537.200527,704.212765 1538.977330,704.634840 1541.217950,705.317542 1544.516745,706.331262 1547.264242,707.174198 1547.556808,706.471548 1551.211642,707.625159 1550.665742,709.340671 1553.093712,710.132043 1555.311293,711.103534"/>
    <poly id="1128037890" type="building.yes" color="255,230,230" fill="1" layer="-1.00" shape="1492.649006,767.474924 1497.968007,752.640590 1485.431956,748.156056 1481.125464,758.151109 1484.604919,759.451092 1483.056125,763.897491 1486.945029,765.358898 1492.649006,767.474924"/>
    <poly id="1128037891" type="building.yes" color="255,230,230" fill="1" layer="-1.00" shape="1643.106016,804.579411 1645.208504,807.005942 1647.592537,804.935045 1645.409117,802.409638 1643.106016,804.579411"/>
    <poly id="1128037893" type="building.yes" color="255,230,230" fill="1" layer="-1.00" shape="1619.814264,896.120203 1613.352284,889.963244 1607.454939,895.916485 1619.795033,908.293032 1626.043381,902.069190 1619.814264,896.120203"/>
    <poly id="1128037895" type="building.yes" color="255,230,230" fill="1" layer="-1.00" shape="1555.311293,711.103534 1563.414898,714.588335 1575.854743,701.819489 1572.536606,700.672839 1571.415371,703.871200 1561.166778,700.279517 1559.788679,704.202284 1554.374600,703.336536 1554.784679,700.657314 1550.341177,699.480077 1549.118115,704.488379 1556.474399,706.262411 1555.311293,711.103534"/>
    <poly id="1128037896" type="building.yes" color="255,230,230" fill="1" layer="-1.00" shape="1500.718174,730.580800 1497.867406,729.262007 1496.280739,732.787877 1494.151860,731.826411 1492.900936,735.281588 1497.732071,737.008854 1500.718174,730.580800"/>
    <poly id="1128037897" type="building.yes" color="255,230,230" fill="1" layer="-1.00" shape="1584.477979,702.890057 1576.314984,711.911442 1604.486471,722.973323 1610.708509,713.143516 1584.477979,702.890057"/>
    <poly id="1128037898" type="building.yes" color="255,230,230" fill="1" layer="-1.00" shape="1661.183426,941.918367 1664.381334,938.317323 1661.136143,935.161326 1657.784956,938.542323 1661.183426,941.918367"/>
    <poly id="1128037899" type="building.yes" color="255,230,230" fill="1" layer="-1.00" shape="1630.901430,909.621735 1628.992835,911.453795 1631.819588,915.158620 1628.589978,917.617150 1644.188006,933.471350 1649.421077,928.247523 1637.017703,915.760748 1630.901430,909.621735"/>
    <poly id="1128037900" type="building.yes" color="255,230,230" fill="1" layer="-1.00" shape="1479.843263,801.675267 1481.052796,802.792254 1483.296444,800.833993 1488.113023,806.434026 1492.238406,803.343069 1491.660421,802.440262 1488.839282,799.201456 1485.610324,795.934362 1484.277026,797.004856 1480.696544,792.521486 1474.977195,797.096702 1479.843263,801.675267"/>
    <poly id="1128037901" type="building.yes" color="255,230,230" fill="1" layer="-1.00" shape="1485.727784,837.299781 1486.134745,832.201607 1464.432626,830.758917 1463.826860,836.980253 1471.576578,837.617564 1471.231499,841.982627 1468.420668,841.750788 1468.010192,845.839246 1463.025804,845.334467 1462.750926,848.200674 1479.887587,850.076613 1485.727784,837.299781"/>
    <poly id="1128037902" type="building.yes" color="255,230,230" fill="1" layer="-1.00" shape="1649.348040,788.424522 1657.199495,780.727475 1655.454775,779.306320 1651.843092,783.844515 1648.532282,781.122078 1645.223690,784.369400 1649.348040,788.424522"/>
    <poly id="1128037904" type="building.yes" color="255,230,230" fill="1" layer="-1.00" shape="1685.576360,905.590267 1689.625645,901.346328 1685.385689,897.248218 1681.427414,901.690777 1685.576360,905.590267"/>
    <poly id="1128037906" type="building.yes" color="255,230,230" fill="1" layer="-1.00" shape="1586.167487,821.288595 1582.412951,825.007449 1591.568701,834.127378 1593.316391,832.175222 1594.767345,833.477904 1599.949374,827.699860 1596.657794,824.378011 1593.132579,828.016378 1586.167487,821.288595"/>
    <poly id="1128037907" type="building.yes" color="255,230,230" fill="1" layer="-1.00" shape="1498.901978,813.647469 1502.786441,817.638884 1505.947394,814.637431 1502.464748,810.907398 1502.070156,810.512771 1500.284471,812.254583 1498.901978,813.647469"/>
    <poly id="1128037908" type="building.yes" color="255,230,230" fill="1" layer="-1.00" shape="1689.625645,901.346328 1693.677436,905.269203 1698.762334,899.514601 1690.156500,891.885824 1685.385689,897.248218 1689.625645,901.346328"/>
    <poly id="1128037909" type="building.yes" color="255,230,230" fill="1" layer="-1.00" shape="1634.647915,817.709969 1626.007702,826.093569 1632.445866,832.472756 1633.608454,831.204644 1636.259917,833.613356 1634.275804,835.790323 1641.076235,842.819759 1650.302780,833.851991 1634.647915,817.709969"/>
    <poly id="1128037911" type="building.yes" color="255,230,230" fill="1" layer="-1.00" shape="1580.774535,757.062953 1587.077158,748.031070 1581.273096,744.251768 1581.064338,744.565020 1575.135900,753.048607 1580.774535,757.062953"/>
    <poly id="1128037912" type="building.yes" color="255,230,230" fill="1" layer="-1.00" shape="1506.291430,699.631591 1505.748852,699.449606 1503.165762,706.960150 1505.888461,707.947628 1507.097710,703.982536 1509.249493,704.644126 1510.418133,700.979132 1506.291430,699.631591"/>
    <poly id="1128037913" type="building.yes" color="255,230,230" fill="1" layer="-1.00" shape="1715.144915,881.038624 1719.399863,876.226275 1712.645981,869.373749 1714.685417,867.373664 1713.250301,865.915421 1690.156500,891.885824 1698.762334,899.514601 1707.359814,889.811144 1702.770652,885.406603 1706.916428,881.083819 1704.890802,879.144567 1708.852901,875.012668 1715.144915,881.038624"/>
    <poly id="1128037914" type="building.yes" color="255,230,230" fill="1" layer="-1.00" shape="1577.482784,887.495388 1581.934809,882.869189 1575.308750,876.336995 1557.418523,894.643093 1564.035673,898.279259 1568.286565,893.866346 1569.214220,892.945087 1567.546227,891.278892 1570.158858,889.072015 1573.065919,892.098966 1577.482784,887.495388"/>
    <poly id="1128037915" type="building.yes" color="255,230,230" fill="1" layer="-1.00" shape="1516.690779,724.914542 1513.918415,732.882350 1527.671659,737.662704 1531.387069,730.027327 1516.690779,724.914542"/>
    <poly id="1128037916" type="building.yes" color="255,230,230" fill="1" layer="-1.00" shape="1535.802070,837.296222 1531.636195,841.419606 1541.857349,851.458511 1545.820471,847.415290 1535.802070,837.296222"/>
    <poly id="1128037917" type="building.yes" color="255,230,230" fill="1" layer="-1.00" shape="1666.808732,871.044311 1664.515318,873.280538 1667.914760,876.734247 1664.309013,880.306992 1669.511992,885.647181 1675.397650,880.182363 1666.808732,871.044311"/>
    <poly id="1128037918" type="building.yes" color="255,230,230" fill="1" layer="-1.00" shape="1446.550188,838.135343 1446.409820,839.690541 1446.236895,840.757904 1451.929958,841.265077 1452.172399,838.643385 1446.550188,838.135343"/>
    <poly id="1128037919" type="building.yes" color="255,230,230" fill="1" layer="-1.00" shape="1570.026287,847.163075 1579.892870,856.462919 1583.146773,853.094180 1568.103013,838.398403 1558.794517,847.899890 1564.229082,853.337045 1570.026287,847.163075"/>
    <poly id="1128037920" type="building.yes" color="255,230,230" fill="1" layer="-1.00" shape="1580.515996,922.511306 1579.530675,924.509608 1578.354859,926.865323 1586.779509,931.267197 1588.181928,928.609107 1586.398788,927.665577 1589.463754,921.891266 1590.657400,920.267686 1587.868027,918.892631 1583.420862,916.683473 1580.515996,922.511306"/>
    <poly id="1128037921" type="building.yes" color="255,230,230" fill="1" layer="-1.00" shape="1599.013129,853.232716 1606.993118,861.102090 1614.237405,854.466578 1616.006342,852.802669 1620.280025,848.800067 1611.876029,840.303387 1599.013129,853.232716"/>
    <poly id="1128037923" type="building.yes" color="255,230,230" fill="1" layer="-1.00" shape="1658.054401,861.420057 1660.683691,859.124236 1653.595422,851.010875 1651.075399,853.549478 1658.054401,861.420057"/>
    <poly id="1128037924" type="building.yes" color="255,230,230" fill="1" layer="-1.00" shape="1433.519160,817.123529 1457.137760,819.541297 1458.759577,805.884100 1437.080969,803.475816 1433.519160,817.123529"/>
    <poly id="1128037925" type="building.yes" color="255,230,230" fill="1" layer="-1.00" shape="1586.454190,803.475592 1588.899958,800.660472 1590.798103,802.312756 1592.775531,800.313401 1584.674060,792.656356 1583.173808,794.561098 1587.123112,798.063521 1584.240080,801.338944 1586.454190,803.475592"/>
    <poly id="1128037926" type="building.yes" color="255,230,230" fill="1" layer="-1.00" shape="1461.838155,864.057331 1467.362652,864.544389 1467.682506,861.011855 1462.228452,860.490644 1461.838155,864.057331"/>
    <poly id="1128037928" type="building.yes" color="255,230,230" fill="1" layer="-1.00" shape="1672.656069,775.600452 1676.054933,771.042679 1671.652060,767.390418 1669.471686,770.180071 1668.067341,771.961564 1672.656069,775.600452"/>
    <poly id="1128037929" type="building.yes" color="255,230,230" fill="1" layer="-1.00" shape="1600.843042,792.180898 1605.077927,787.901358 1599.877293,782.760910 1595.724589,786.517922 1600.843042,792.180898"/>
    <poly id="1128037930" type="building.yes" color="255,230,230" fill="1" layer="-1.00" shape="1596.194458,931.185156 1597.025730,931.796364 1596.204492,932.727413 1596.642269,933.032746 1596.135654,933.615957 1594.521878,932.759120 1594.253576,933.272834 1593.326376,932.784860 1592.538367,934.259219 1595.560587,935.842252 1602.568300,927.977941 1601.265047,927.161684 1600.935020,927.698347 1601.399367,928.003355 1600.421834,929.191531 1600.064446,928.940695 1599.463670,929.791369 1598.054274,928.987509 1596.194458,931.185156"/>