<?xml version="1.0"?>

<!--
// Copyright (C) 2011 Christoph Sommer <sommer@ccs-labs.org>
//
// Documentation for these modules is at http://veins.car2x.org/
//
// SPDX-License-Identifier: (GPL-2.0-or-later OR CC-BY-SA-4.0)
//
// This program is free software; you can redistribute it and/or modify
// it under the terms of the GNU General Public License as published by
// the Free Software Foundation; either version 2 of the License, or
// (at your option) any later version.
//
// This program is distributed in the hope that it will be useful,
// but WITHOUT ANY WARRANTY; without even the implied warranty of
// MERCHANTABILITY or FITNESS FOR A PARTICULAR PURPOSE.  See the
// GNU General Public License for more details.
//
// You should have received a copy of the GNU General Public License
// along with this program; if not, write to the Free Software
// Foundation, Inc., 59 Temple Place, Suite 330, Boston, MA  02111-1307  USA
//
// -
//
// At your option, you can also redistribute and/or modify this file
// under a
// Creative Commons Attribution-ShareAlike 4.0 International License.
//
// You should have received a copy of the license along with this
// work.  If not, see <http://creativecommons.org/licenses/by-sa/4.0/>.
-->

<!--
194 Cars leaving the Computer Science Building and campus of the University of Erlangen-Nuremberg 
-->

<routes>
   <vType id="vtype0" accel="2.4" decel="4.5" sigma="0.5" length="2.5" minGap="2.5" maxSpeed="14" color="1,1,0"/>
   <vType id="vtype1" accel="2" decel="4.5" sigma="0.5" length="2.5" minGap="2.5" maxSpeed="10" color="1,1,0"/>
   
   <flow id="flow0" type="vtype0" beg="0" end="0" number="25" from="72603830#16" to="-517470017#0"/>
   <flow id="flow1" type="vtype0" beg="0" end="0" number="25" from="72603830#16" to="72608819#2"/>
   <flow id="flow2" type="vtype0" beg="0" end="0" number="25" from="72603830#16" to="72608816#5"/>
   
   <flow id="flow3" type="vtype0" beg="0" end="0" number="25" from="517365706#1" to="72608819#2"/>
   <flow id="flow4" type="vtype0" beg="0" end="0" number="25" from="517365706#1" to="72608816#5"/>
   <flow id="flow5" type="vtype0" beg="0" end="0" number="25" from="517365706#1" to="-72603830#16"/>
   
   <flow id="flow6" type="vtype0" beg="0" end="0" number="25" from="230130137#21" to="72608816#5"/>
   <flow id="flow7" type="vtype0" beg="0" end="0" number="25" from="230130137#21" to="-72603830#13"/>
   <flow id="flow8" type="vtype0" beg="0" end="0" number="25" from="230130137#21" to="-517470017#0"/>
   
   <flow id="flow9" type="vtype0" beg="0" end="0" number="25" from="-72608816#4" to="-72603830#17"/>
   <flow id="flow10" type="vtype0" beg="0" end="0" number="25" from="-72608816#4" to="-517470017#0"/>
   <flow id="flow11" type="vtype0" beg="0" end="0" number="25" from="-72608816#4" to="72608819#2"/>
   
</routes>
