<?xml version="1.0" encoding="UTF-8"?>

<!-- generated on Sat Dec  9 18:16:34 2023 by Eclipse SUMO netconvert Version 1.8.0
<configuration xmlns:xsi="http://www.w3.org/2001/XMLSchema-instance" xsi:noNamespaceSchemaLocation="http://sumo.dlr.de/xsd/netconvertConfiguration.xsd">

    <input>
        <type-files value="/home/luis/Scrivania/sumo-1.8.0/data/typemap/osmNetconvert.typ.xml"/>
        <osm-files value="osm_bbox.osm.xml"/>
    </input>

    <output>
        <output-file value="osm.net.xml"/>
        <output.street-names value="true"/>
        <output.original-names value="true"/>
    </output>

    <projection>
        <proj.utm value="true"/>
    </projection>

    <processing>
        <geometry.remove value="true"/>
        <roundabouts.guess value="true"/>
    </processing>

    <tls_building>
        <tls.discard-simple value="true"/>
        <tls.join value="true"/>
        <tls.guess-signals value="true"/>
        <tls.default-type value="actuated"/>
    </tls_building>

    <ramp_guessing>
        <ramps.guess value="true"/>
    </ramp_guessing>

    <junctions>
        <junctions.join value="true"/>
        <junctions.corner-detail value="5"/>
    </junctions>

    <report>
        <verbose value="true"/>
        <aggregate-warnings value="5"/>
    </report>

</configuration>
-->

<net version="1.6" junctionCornerDetail="5" limitTurnSpeed="5.50" xmlns:xsi="http://www.w3.org/2001/XMLSchema-instance" xsi:noNamespaceSchemaLocation="http://sumo.dlr.de/xsd/net_file.xsd">

    <location netOffset="-395978.87,-4133926.23" convBoundary="0.00,0.00,1820.98,1723.09" origBoundary="13.825451,37.346292,13.846039,37.361815" projParameter="+proj=utm +zone=33 +ellps=WGS84 +datum=WGS84 +units=m +no_defs"/>

    <type id="highway.bridleway" priority="1" numLanes="1" speed="2.78" allow="pedestrian" oneway="1" width="2.00"/>
    <type id="highway.bus_guideway" priority="1" numLanes="1" speed="27.78" allow="bus" oneway="1"/>
    <type id="highway.cycleway" priority="1" numLanes="1" speed="8.33" allow="bicycle" oneway="0" width="1.00"/>
    <type id="highway.footway" priority="1" numLanes="1" speed="2.78" allow="pedestrian" oneway="1" width="2.00"/>
    <type id="highway.ford" priority="1" numLanes="1" speed="2.78" allow="army" oneway="0"/>
    <type id="highway.living_street" priority="2" numLanes="1" speed="2.78" disallow="tram rail_urban rail rail_electric rail_fast ship" oneway="0"/>
    <type id="highway.motorway" priority="14" numLanes="2" speed="39.44" allow="private emergency authority army vip passenger hov taxi bus coach delivery truck trailer motorcycle evehicle custom1 custom2" oneway="1"/>
    <type id="highway.motorway_link" priority="9" numLanes="1" speed="22.22" allow="private emergency authority army vip passenger hov taxi bus coach delivery truck trailer motorcycle evehicle custom1 custom2" oneway="1"/>
    <type id="highway.path" priority="1" numLanes="1" speed="2.78" allow="pedestrian bicycle" oneway="0" width="2.00"/>
    <type id="highway.pedestrian" priority="1" numLanes="1" speed="2.78" allow="pedestrian" oneway="1" width="2.00"/>
    <type id="highway.primary" priority="12" numLanes="2" speed="27.78" disallow="tram rail_urban rail rail_electric rail_fast ship" oneway="0"/>
    <type id="highway.primary_link" priority="7" numLanes="1" speed="22.22" disallow="tram rail_urban rail rail_electric rail_fast ship" oneway="0"/>
    <type id="highway.raceway" priority="15" numLanes="2" speed="83.33" allow="vip" oneway="0"/>
    <type id="highway.residential" priority="3" numLanes="1" speed="13.89" disallow="tram rail_urban rail rail_electric rail_fast ship" oneway="0"/>
    <type id="highway.secondary" priority="11" numLanes="1" speed="27.78" disallow="tram rail_urban rail rail_electric rail_fast ship" oneway="0"/>
    <type id="highway.secondary_link" priority="6" numLanes="1" speed="22.22" disallow="tram rail_urban rail rail_electric rail_fast ship" oneway="0"/>
    <type id="highway.service" priority="1" numLanes="1" speed="5.56" allow="pedestrian delivery bicycle" oneway="0"/>
    <type id="highway.stairs" priority="1" numLanes="1" speed="1.39" allow="pedestrian" oneway="1" width="2.00"/>
    <type id="highway.step" priority="1" numLanes="1" speed="1.39" allow="pedestrian" oneway="1" width="2.00"/>
    <type id="highway.steps" priority="1" numLanes="1" speed="1.39" allow="pedestrian" oneway="1" width="2.00"/>
    <type id="highway.tertiary" priority="10" numLanes="1" speed="22.22" disallow="tram rail_urban rail rail_electric rail_fast ship" oneway="0"/>
    <type id="highway.tertiary_link" priority="5" numLanes="1" speed="22.22" disallow="tram rail_urban rail rail_electric rail_fast ship" oneway="0"/>
    <type id="highway.track" priority="1" numLanes="1" speed="5.56" allow="pedestrian motorcycle moped bicycle" oneway="0"/>
    <type id="highway.trunk" priority="13" numLanes="2" speed="27.78" disallow="pedestrian bicycle tram rail_urban rail rail_electric rail_fast ship" oneway="0"/>
    <type id="highway.trunk_link" priority="8" numLanes="1" speed="22.22" disallow="pedestrian bicycle tram rail_urban rail rail_electric rail_fast ship" oneway="0"/>
    <type id="highway.unclassified" priority="4" numLanes="1" speed="13.89" disallow="tram rail_urban rail rail_electric rail_fast ship" oneway="0"/>
    <type id="highway.unsurfaced" priority="1" numLanes="1" speed="8.33" disallow="tram rail_urban rail rail_electric rail_fast ship" oneway="0"/>
    <type id="railway.highspeed" priority="21" numLanes="1" speed="69.44" allow="rail_fast" oneway="1"/>
    <type id="railway.light_rail" priority="19" numLanes="1" speed="27.78" allow="rail_urban" oneway="1"/>
    <type id="railway.preserved" priority="16" numLanes="1" speed="27.78" allow="rail" oneway="1"/>
    <type id="railway.rail" priority="20" numLanes="1" speed="44.44" allow="rail" oneway="1"/>
    <type id="railway.subway" priority="18" numLanes="1" speed="27.78" allow="rail_urban" oneway="1"/>
    <type id="railway.tram" priority="17" numLanes="1" speed="13.89" allow="tram" oneway="1"/>

    <edge id=":10291455715_0" function="internal">
        <lane id=":10291455715_0_0" index="0" disallow="tram rail_urban rail rail_electric rail_fast ship" speed="13.89" length="5.00" shape="1463.36,785.01 1458.48,783.92"/>
    </edge>
    <edge id=":10291455715_1" function="internal">
        <lane id=":10291455715_1_0" index="0" disallow="tram rail_urban rail rail_electric rail_fast ship" speed="3.65" length="2.34" shape="1463.36,785.01 1462.36,783.97 1462.15,783.10"/>
    </edge>
    <edge id=":10291455715_4" function="internal">
        <lane id=":10291455715_4_0" index="0" disallow="tram rail_urban rail rail_electric rail_fast ship" speed="3.65" length="2.34" shape="1462.15,783.10 1462.71,782.41 1464.06,781.89"/>
    </edge>
    <edge id=":10291455715_2" function="internal">
        <lane id=":10291455715_2_0" index="0" disallow="tram rail_urban rail rail_electric rail_fast ship" speed="13.89" length="5.01" shape="1459.17,780.80 1464.06,781.89"/>
    </edge>
    <edge id=":10291455715_3" function="internal">
        <lane id=":10291455715_3_0" index="0" disallow="tram rail_urban rail rail_electric rail_fast ship" speed="3.65" length="2.34" shape="1459.17,780.80 1460.17,781.84 1460.39,782.71"/>
    </edge>
    <edge id=":10291455715_5" function="internal">
        <lane id=":10291455715_5_0" index="0" disallow="tram rail_urban rail rail_electric rail_fast ship" speed="3.65" length="2.34" shape="1460.39,782.71 1459.82,783.40 1458.48,783.92"/>
    </edge>
    <edge id=":10291455717_0" function="internal">
        <lane id=":10291455717_0_0" index="0" allow="pedestrian delivery bicycle" speed="3.65" length="4.67" shape="1079.27,623.73 1078.56,624.99 1077.79,625.44 1076.96,625.10 1076.08,623.96"/>
    </edge>
    <edge id=":10291455719_0" function="internal">
        <lane id=":10291455719_0_0" index="0" disallow="tram rail_urban rail rail_electric rail_fast ship" speed="3.65" length="4.67" shape="1465.87,772.67 1464.73,773.55 1463.84,773.67 1463.21,773.04 1462.84,771.64"/>
    </edge>
    <edge id=":10291455721_0" function="internal">
        <lane id=":10291455721_0_0" index="0" disallow="tram rail_urban rail rail_electric rail_fast ship" speed="6.56" length="9.09" shape="1491.97,714.50 1489.54,714.05 1487.53,714.50 1485.95,715.83 1484.80,718.04"/>
    </edge>
    <edge id=":10291455721_1" function="internal">
        <lane id=":10291455721_1_0" index="0" disallow="tram rail_urban rail rail_electric rail_fast ship" speed="13.89" length="14.39" shape="1491.97,714.50 1478.35,709.86"/>
    </edge>
    <edge id=":10291455721_2" function="internal">
        <lane id=":10291455721_2_0" index="0" disallow="tram rail_urban rail rail_electric rail_fast ship" speed="3.65" length="2.34" shape="1491.97,714.50 1491.08,713.36 1490.96,712.47"/>
    </edge>
    <edge id=":10291455721_9" function="internal">
        <lane id=":10291455721_9_0" index="0" disallow="tram rail_urban rail rail_electric rail_fast ship" speed="3.65" length="2.34" shape="1490.96,712.47 1491.60,711.84 1492.99,711.47"/>
    </edge>
    <edge id=":10291455721_3" function="internal">
        <lane id=":10291455721_3_0" index="0" disallow="tram rail_urban rail rail_electric rail_fast ship" speed="13.89" length="14.37" shape="1479.39,706.83 1492.99,711.47"/>
    </edge>
    <edge id=":10291455721_4" function="internal">
        <lane id=":10291455721_4_0" index="0" disallow="tram rail_urban rail rail_electric rail_fast ship" speed="7.99" length="5.90" shape="1479.39,706.83 1482.86,708.61 1484.14,710.14"/>
    </edge>
    <edge id=":10291455721_5" function="internal">
        <lane id=":10291455721_5_0" index="0" disallow="tram rail_urban rail rail_electric rail_fast ship" speed="3.65" length="2.34" shape="1479.39,706.83 1480.26,707.98 1480.38,708.86"/>
    </edge>
    <edge id=":10291455721_10" function="internal">
        <lane id=":10291455721_10_0" index="0" disallow="tram rail_urban rail rail_electric rail_fast ship" speed="7.99" length="8.33" shape="1484.14,710.14 1484.92,711.07 1485.56,714.22 1484.80,718.04"/>
    </edge>
    <edge id=":10291455721_11" function="internal">
        <lane id=":10291455721_11_0" index="0" disallow="tram rail_urban rail rail_electric rail_fast ship" speed="3.65" length="2.34" shape="1480.38,708.86 1479.74,709.49 1478.35,709.86"/>
    </edge>
    <edge id=":10291455721_6" function="internal">
        <lane id=":10291455721_6_0" index="0" disallow="tram rail_urban rail rail_electric rail_fast ship" speed="6.49" length="9.03" shape="1481.78,716.98 1482.27,714.55 1481.86,712.55 1480.55,710.99 1478.35,709.86"/>
    </edge>
    <edge id=":10291455721_7" function="internal">
        <lane id=":10291455721_7_0" index="0" disallow="tram rail_urban rail rail_electric rail_fast ship" speed="8.04" length="14.20" shape="1481.78,716.98 1483.58,713.52 1486.05,711.45 1489.19,710.77 1492.99,711.47"/>
    </edge>
    <edge id=":10291455721_8" function="internal">
        <lane id=":10291455721_8_0" index="0" disallow="tram rail_urban rail rail_electric rail_fast ship" speed="3.65" length="4.67" shape="1481.78,716.98 1482.93,716.11 1483.82,716.00 1484.44,716.65 1484.80,718.04"/>
    </edge>
    <edge id=":10291455722_0" function="internal">
        <lane id=":10291455722_0_0" index="0" disallow="tram rail_urban rail rail_electric rail_fast ship" speed="7.82" length="11.03" shape="1590.33,769.58 1587.35,768.75 1584.71,768.85 1582.42,769.89 1580.47,771.86"/>
    </edge>
    <edge id=":10291455722_1" function="internal">
        <lane id=":10291455722_1_0" index="0" disallow="tram rail_urban rail rail_electric rail_fast ship" speed="13.89" length="15.65" shape="1590.33,769.58 1586.81,768.03 1583.25,766.25 1579.79,764.30 1576.55,762.22"/>
    </edge>
    <edge id=":10291455722_2" function="internal">
        <lane id=":10291455722_2_0" index="0" disallow="tram rail_urban rail rail_electric rail_fast ship" speed="7.64" length="15.20" shape="1590.33,769.58 1586.61,767.38 1584.81,764.65 1584.92,761.37 1586.95,757.56"/>
    </edge>
    <edge id=":10291455722_3" function="internal">
        <lane id=":10291455722_3_0" index="0" disallow="tram rail_urban rail rail_electric rail_fast ship" speed="3.65" length="4.67" shape="1590.33,769.58 1589.53,768.38 1589.46,767.49 1590.14,766.91 1591.55,766.62"/>
    </edge>
    <edge id=":10291455722_4" function="internal">
        <lane id=":10291455722_4_0" index="0" disallow="tram rail_urban rail rail_electric rail_fast ship" speed="6.05" length="9.07" shape="1589.53,759.45 1588.32,761.72 1588.25,763.68 1589.33,765.31 1591.55,766.62"/>
    </edge>
    <edge id=":10291455722_5" function="internal">
        <lane id=":10291455722_5_0" index="0" disallow="tram rail_urban rail rail_electric rail_fast ship" speed="13.89" length="15.37" shape="1589.53,759.45 1580.47,771.86"/>
    </edge>
    <edge id=":10291455722_6" function="internal">
        <lane id=":10291455722_6_0" index="0" disallow="tram rail_urban rail rail_electric rail_fast ship" speed="8.31" length="6.45" shape="1589.53,759.45 1586.59,762.54 1584.61,763.47"/>
    </edge>
    <edge id=":10291455722_7" function="internal">
        <lane id=":10291455722_7_0" index="0" disallow="tram rail_urban rail rail_electric rail_fast ship" speed="3.65" length="2.34" shape="1589.53,759.45 1588.18,759.94 1587.30,759.79"/>
    </edge>
    <edge id=":10291455722_16" function="internal">
        <lane id=":10291455722_16_0" index="0" disallow="tram rail_urban rail rail_electric rail_fast ship" speed="8.31" length="8.58" shape="1584.61,763.47 1583.44,764.03 1580.09,763.93 1576.55,762.22"/>
    </edge>
    <edge id=":10291455722_17" function="internal">
        <lane id=":10291455722_17_0" index="0" disallow="tram rail_urban rail rail_electric rail_fast ship" speed="3.65" length="2.34" shape="1587.30,759.79 1586.89,759.00 1586.95,757.56"/>
    </edge>
    <edge id=":10291455722_8" function="internal">
        <lane id=":10291455722_8_0" index="0" disallow="tram rail_urban rail rail_electric rail_fast ship" speed="6.89" length="9.99" shape="1578.35,759.58 1580.67,760.67 1582.87,760.70 1584.97,759.66 1586.95,757.56"/>
    </edge>
    <edge id=":10291455722_9" function="internal">
        <lane id=":10291455722_9_0" index="0" disallow="tram rail_urban rail rail_electric rail_fast ship" speed="13.89" length="14.98" shape="1578.35,759.58 1581.51,761.61 1584.77,763.45 1588.12,765.12 1591.55,766.62"/>
    </edge>
    <edge id=":10291455722_10" function="internal">
        <lane id=":10291455722_10_0" index="0" disallow="tram rail_urban rail rail_electric rail_fast ship" speed="7.95" length="14.30" shape="1578.35,759.58 1581.25,762.25 1582.57,765.18 1582.31,768.39 1580.47,771.86"/>
    </edge>
    <edge id=":10291455722_11" function="internal">
        <lane id=":10291455722_11_0" index="0" disallow="tram rail_urban rail rail_electric rail_fast ship" speed="3.65" length="4.67" shape="1578.35,759.58 1578.89,760.92 1578.77,761.81 1577.99,762.24 1576.55,762.22"/>
    </edge>
    <edge id=":10291455722_12" function="internal">
        <lane id=":10291455722_12_0" index="0" disallow="tram rail_urban rail rail_electric rail_fast ship" speed="6.45" length="9.03" shape="1577.88,769.98 1579.04,767.78 1579.21,765.76 1578.38,763.91 1576.55,762.22"/>
    </edge>
    <edge id=":10291455722_13" function="internal">
        <lane id=":10291455722_13_0" index="0" disallow="tram rail_urban rail rail_electric rail_fast ship" speed="13.89" length="15.38" shape="1577.88,769.98 1586.95,757.56"/>
    </edge>
    <edge id=":10291455722_14" function="internal">
        <lane id=":10291455722_14_0" index="0" disallow="tram rail_urban rail rail_electric rail_fast ship" speed="9.12" length="6.08" shape="1577.88,769.98 1580.62,767.18 1582.57,766.27"/>
    </edge>
    <edge id=":10291455722_15" function="internal">
        <lane id=":10291455722_15_0" index="0" disallow="tram rail_urban rail rail_electric rail_fast ship" speed="3.65" length="2.34" shape="1577.88,769.98 1579.23,769.48 1580.12,769.63"/>
    </edge>
    <edge id=":10291455722_18" function="internal">
        <lane id=":10291455722_18_0" index="0" disallow="tram rail_urban rail rail_electric rail_fast ship" speed="9.12" length="9.26" shape="1582.57,766.27 1583.82,765.68 1587.46,765.50 1591.55,766.62"/>
    </edge>
    <edge id=":10291455722_19" function="internal">
        <lane id=":10291455722_19_0" index="0" disallow="tram rail_urban rail rail_electric rail_fast ship" speed="3.65" length="2.34" shape="1580.12,769.63 1580.53,770.42 1580.47,771.86"/>
    </edge>
    <edge id=":10291455723_0" function="internal">
        <lane id=":10291455723_0_0" index="0" disallow="tram rail_urban rail rail_electric rail_fast ship" speed="6.20" length="9.05" shape="1570.51,795.37 1568.48,793.85 1566.54,793.43 1564.67,794.12 1562.89,795.93"/>
    </edge>
    <edge id=":10291455723_1" function="internal">
        <lane id=":10291455723_1_0" index="0" disallow="tram rail_urban rail rail_electric rail_fast ship" speed="13.89" length="15.50" shape="1570.51,795.37 1559.59,784.37"/>
    </edge>
    <edge id=":10291455723_2" function="internal">
        <lane id=":10291455723_2_0" index="0" disallow="tram rail_urban rail rail_electric rail_fast ship" speed="8.82" length="6.29" shape="1570.51,795.37 1568.04,792.09 1567.43,790.00"/>
    </edge>
    <edge id=":10291455723_3" function="internal">
        <lane id=":10291455723_3_0" index="0" disallow="tram rail_urban rail rail_electric rail_fast ship" speed="3.65" length="2.34" shape="1570.51,795.37 1570.23,793.96 1570.52,793.11"/>
    </edge>
    <edge id=":10291455723_16" function="internal">
        <lane id=":10291455723_16_0" index="0" disallow="tram rail_urban rail rail_electric rail_fast ship" speed="8.82" length="9.04" shape="1567.43,790.00 1567.04,788.68 1567.52,785.17 1569.47,781.54"/>
    </edge>
    <edge id=":10291455723_17" function="internal">
        <lane id=":10291455723_17_0" index="0" disallow="tram rail_urban rail rail_electric rail_fast ship" speed="3.65" length="2.34" shape="1570.52,793.11 1571.36,792.83 1572.78,793.12"/>
    </edge>
    <edge id=":10291455723_4" function="internal">
        <lane id=":10291455723_4_0" index="0" disallow="tram rail_urban rail rail_electric rail_fast ship" speed="7.47" length="10.74" shape="1572.05,783.42 1570.69,785.97 1570.35,788.43 1571.05,790.82 1572.78,793.12"/>
    </edge>
    <edge id=":10291455723_5" function="internal">
        <lane id=":10291455723_5_0" index="0" disallow="tram rail_urban rail rail_electric rail_fast ship" speed="13.89" length="15.51" shape="1572.05,783.42 1562.89,795.93"/>
    </edge>
    <edge id=":10291455723_6" function="internal">
        <lane id=":10291455723_6_0" index="0" disallow="tram rail_urban rail rail_electric rail_fast ship" speed="7.74" length="14.84" shape="1572.05,783.42 1569.15,786.40 1566.10,787.55 1562.92,786.88 1559.59,784.37"/>
    </edge>
    <edge id=":10291455723_7" function="internal">
        <lane id=":10291455723_7_0" index="0" disallow="tram rail_urban rail rail_electric rail_fast ship" speed="3.65" length="4.67" shape="1572.05,783.42 1570.70,783.92 1569.82,783.77 1569.41,782.98 1569.47,781.54"/>
    </edge>
    <edge id=":10291455723_8" function="internal">
        <lane id=":10291455723_8_0" index="0" disallow="tram rail_urban rail rail_electric rail_fast ship" speed="6.19" length="9.05" shape="1561.87,782.11 1563.89,783.64 1565.84,784.06 1567.69,783.35 1569.47,781.54"/>
    </edge>
    <edge id=":10291455723_9" function="internal">
        <lane id=":10291455723_9_0" index="0" disallow="tram rail_urban rail rail_electric rail_fast ship" speed="13.89" length="15.50" shape="1561.87,782.11 1572.78,793.12"/>
    </edge>
    <edge id=":10291455723_10" function="internal">
        <lane id=":10291455723_10_0" index="0" disallow="tram rail_urban rail rail_electric rail_fast ship" speed="8.80" length="6.30" shape="1561.87,782.11 1564.34,785.41 1564.95,787.50"/>
    </edge>
    <edge id=":10291455723_11" function="internal">
        <lane id=":10291455723_11_0" index="0" disallow="tram rail_urban rail rail_electric rail_fast ship" speed="3.65" length="2.34" shape="1561.87,782.11 1562.14,783.53 1561.86,784.38"/>
    </edge>
    <edge id=":10291455723_18" function="internal">
        <lane id=":10291455723_18_0" index="0" disallow="tram rail_urban rail rail_electric rail_fast ship" speed="8.80" length="9.02" shape="1564.95,787.50 1565.34,788.81 1564.85,792.32 1562.89,795.93"/>
    </edge>
    <edge id=":10291455723_19" function="internal">
        <lane id=":10291455723_19_0" index="0" disallow="tram rail_urban rail rail_electric rail_fast ship" speed="3.65" length="2.34" shape="1561.86,784.38 1561.01,784.66 1559.59,784.37"/>
    </edge>
    <edge id=":10291455723_12" function="internal">
        <lane id=":10291455723_12_0" index="0" disallow="tram rail_urban rail rail_electric rail_fast ship" speed="7.45" length="10.72" shape="1560.32,794.04 1561.69,791.51 1562.02,789.05 1561.33,786.67 1559.59,784.37"/>
    </edge>
    <edge id=":10291455723_13" function="internal">
        <lane id=":10291455723_13_0" index="0" disallow="tram rail_urban rail rail_electric rail_fast ship" speed="13.89" length="15.49" shape="1560.32,794.04 1569.47,781.54"/>
    </edge>
    <edge id=":10291455723_14" function="internal">
        <lane id=":10291455723_14_0" index="0" disallow="tram rail_urban rail rail_electric rail_fast ship" speed="7.75" length="14.82" shape="1560.32,794.04 1563.23,791.08 1566.28,789.94 1569.46,790.62 1572.78,793.12"/>
    </edge>
    <edge id=":10291455723_15" function="internal">
        <lane id=":10291455723_15_0" index="0" disallow="tram rail_urban rail rail_electric rail_fast ship" speed="3.65" length="4.67" shape="1560.32,794.04 1561.67,793.54 1562.55,793.70 1562.96,794.49 1562.89,795.93"/>
    </edge>
    <edge id=":10291455724_0" function="internal">
        <lane id=":10291455724_0_0" index="0" disallow="tram rail_urban rail rail_electric rail_fast ship" speed="13.89" length="14.20" shape="1552.35,818.10 1542.35,808.02"/>
    </edge>
    <edge id=":10291455724_1" function="internal">
        <lane id=":10291455724_1_0" index="0" disallow="tram rail_urban rail rail_electric rail_fast ship" speed="8.64" length="5.40" shape="1552.35,818.10 1550.30,815.09 1549.92,813.38"/>
    </edge>
    <edge id=":10291455724_2" function="internal">
        <lane id=":10291455724_2_0" index="0" disallow="tram rail_urban rail rail_electric rail_fast ship" speed="3.65" length="2.34" shape="1552.35,818.10 1552.12,816.68 1552.43,815.84"/>
    </edge>
    <edge id=":10291455724_9" function="internal">
        <lane id=":10291455724_9_0" index="0" disallow="tram rail_urban rail rail_electric rail_fast ship" speed="8.64" length="8.95" shape="1549.92,813.38 1549.59,811.92 1550.23,808.56 1552.22,805.04"/>
    </edge>
    <edge id=":10291455724_10" function="internal">
        <lane id=":10291455724_10_0" index="0" disallow="tram rail_urban rail rail_electric rail_fast ship" speed="3.65" length="2.34" shape="1552.43,815.84 1553.28,815.58 1554.69,815.91"/>
    </edge>
    <edge id=":10291455724_3" function="internal">
        <lane id=":10291455724_3_0" index="0" disallow="tram rail_urban rail rail_electric rail_fast ship" speed="7.26" length="9.86" shape="1554.79,806.94 1553.38,809.40 1552.90,811.72 1553.33,813.89 1554.69,815.91"/>
    </edge>
    <edge id=":10291455724_4" function="internal">
        <lane id=":10291455724_4_0" index="0" disallow="tram rail_urban rail rail_electric rail_fast ship" speed="7.79" length="14.70" shape="1554.79,806.94 1551.91,809.86 1548.88,811.02 1545.69,810.40 1542.35,808.02"/>
    </edge>
    <edge id=":10291455724_5" function="internal">
        <lane id=":10291455724_5_0" index="0" disallow="tram rail_urban rail rail_electric rail_fast ship" speed="3.65" length="4.67" shape="1554.79,806.94 1553.44,807.43 1552.56,807.28 1552.15,806.48 1552.22,805.04"/>
    </edge>
    <edge id=":10291455724_6" function="internal">
        <lane id=":10291455724_6_0" index="0" disallow="tram rail_urban rail rail_electric rail_fast ship" speed="6.25" length="9.05" shape="1544.56,805.70 1546.62,807.17 1548.58,807.55 1550.44,806.84 1552.22,805.04"/>
    </edge>
    <edge id=":10291455724_7" function="internal">
        <lane id=":10291455724_7_0" index="0" disallow="tram rail_urban rail rail_electric rail_fast ship" speed="13.89" length="14.38" shape="1544.56,805.70 1554.69,815.91"/>
    </edge>
    <edge id=":10291455724_8" function="internal">
        <lane id=":10291455724_8_0" index="0" disallow="tram rail_urban rail rail_electric rail_fast ship" speed="3.65" length="2.34" shape="1544.56,805.70 1544.87,807.11 1544.61,807.97"/>
    </edge>
    <edge id=":10291455724_11" function="internal">
        <lane id=":10291455724_11_0" index="0" disallow="tram rail_urban rail rail_electric rail_fast ship" speed="3.65" length="2.34" shape="1544.61,807.97 1543.77,808.27 1542.35,808.02"/>
    </edge>
    <edge id=":10291455725_0" function="internal">
        <lane id=":10291455725_0_0" index="0" disallow="tram rail_urban rail rail_electric rail_fast ship" speed="3.65" length="4.67" shape="1585.85,907.03 1584.43,907.27 1583.59,906.96 1583.34,906.10 1583.66,904.70"/>
    </edge>
    <edge id=":10291455726_0" function="internal">
        <lane id=":10291455726_0_0" index="0" disallow="tram rail_urban rail rail_electric rail_fast ship" speed="6.71" length="9.40" shape="1602.05,899.60 1600.02,898.10 1597.95,897.61 1595.86,898.12 1593.74,899.63"/>
    </edge>
    <edge id=":10291455726_1" function="internal">
        <lane id=":10291455726_1_0" index="0" disallow="tram rail_urban rail rail_electric rail_fast ship" speed="13.89" length="14.58" shape="1602.05,899.60 1591.54,889.49"/>
    </edge>
    <edge id=":10291455726_2" function="internal">
        <lane id=":10291455726_2_0" index="0" disallow="tram rail_urban rail rail_electric rail_fast ship" speed="7.99" length="5.79" shape="1602.05,899.60 1599.69,896.49 1599.23,894.66"/>
    </edge>
    <edge id=":10291455726_3" function="internal">
        <lane id=":10291455726_3_0" index="0" disallow="tram rail_urban rail rail_electric rail_fast ship" speed="3.65" length="2.34" shape="1602.05,899.60 1601.76,898.18 1602.04,897.33"/>
    </edge>
    <edge id=":10291455726_16" function="internal">
        <lane id=":10291455726_16_0" index="0" disallow="tram rail_urban rail rail_electric rail_fast ship" speed="7.99" length="8.42" shape="1599.23,894.66 1598.90,893.38 1599.67,890.27 1602.01,887.15"/>
    </edge>
    <edge id=":10291455726_17" function="internal">
        <lane id=":10291455726_17_0" index="0" disallow="tram rail_urban rail rail_electric rail_fast ship" speed="3.65" length="2.34" shape="1602.04,897.33 1602.88,897.05 1604.30,897.32"/>
    </edge>
    <edge id=":10291455726_4" function="internal">
        <lane id=":10291455726_4_0" index="0" disallow="tram rail_urban rail rail_electric rail_fast ship" speed="6.50" length="9.03" shape="1604.27,889.41 1602.79,891.39 1602.30,893.37 1602.80,895.35 1604.30,897.32"/>
    </edge>
    <edge id=":10291455726_5" function="internal">
        <lane id=":10291455726_5_0" index="0" disallow="tram rail_urban rail rail_electric rail_fast ship" speed="13.89" length="14.67" shape="1604.27,889.41 1593.74,899.63"/>
    </edge>
    <edge id=":10291455726_6" function="internal">
        <lane id=":10291455726_6_0" index="0" disallow="tram rail_urban rail rail_electric rail_fast ship" speed="8.15" length="14.42" shape="1604.27,889.41 1601.15,891.74 1597.99,892.53 1594.79,891.78 1591.54,889.49"/>
    </edge>
    <edge id=":10291455726_7" function="internal">
        <lane id=":10291455726_7_0" index="0" disallow="tram rail_urban rail rail_electric rail_fast ship" speed="3.65" length="4.67" shape="1604.27,889.41 1602.86,889.69 1602.01,889.41 1601.73,888.56 1602.01,887.15"/>
    </edge>
    <edge id=":10291455726_8" function="internal">
        <lane id=":10291455726_8_0" index="0" disallow="tram rail_urban rail rail_electric rail_fast ship" speed="6.69" length="9.37" shape="1593.73,887.15 1595.85,888.65 1597.94,889.15 1599.99,888.65 1602.01,887.15"/>
    </edge>
    <edge id=":10291455726_9" function="internal">
        <lane id=":10291455726_9_0" index="0" disallow="tram rail_urban rail rail_electric rail_fast ship" speed="13.89" length="14.67" shape="1593.73,887.15 1604.30,897.32"/>
    </edge>
    <edge id=":10291455726_10" function="internal">
        <lane id=":10291455726_10_0" index="0" disallow="tram rail_urban rail rail_electric rail_fast ship" speed="7.89" length="6.08" shape="1593.73,887.15 1596.23,890.27 1596.77,892.29"/>
    </edge>
    <edge id=":10291455726_11" function="internal">
        <lane id=":10291455726_11_0" index="0" disallow="tram rail_urban rail rail_electric rail_fast ship" speed="3.65" length="2.34" shape="1593.73,887.15 1594.06,888.56 1593.81,889.41"/>
    </edge>
    <edge id=":10291455726_18" function="internal">
        <lane id=":10291455726_18_0" index="0" disallow="tram rail_urban rail rail_electric rail_fast ship" speed="7.89" length="8.35" shape="1596.77,892.29 1597.06,893.39 1596.23,896.51 1593.74,899.63"/>
    </edge>
    <edge id=":10291455726_19" function="internal">
        <lane id=":10291455726_19_0" index="0" disallow="tram rail_urban rail rail_electric rail_fast ship" speed="3.65" length="2.34" shape="1593.81,889.41 1592.97,889.72 1591.54,889.49"/>
    </edge>
    <edge id=":10291455726_12" function="internal">
        <lane id=":10291455726_12_0" index="0" disallow="tram rail_urban rail rail_electric rail_fast ship" speed="6.37" length="9.04" shape="1591.55,897.29 1593.11,895.34 1593.63,893.39 1593.10,891.44 1591.54,889.49"/>
    </edge>
    <edge id=":10291455726_13" function="internal">
        <lane id=":10291455726_13_0" index="0" disallow="tram rail_urban rail rail_electric rail_fast ship" speed="13.89" length="14.57" shape="1591.55,897.29 1602.01,887.15"/>